Caleb Alexander

VI 1 0 SIN(0 5 1K)
VDD 6 0 DC 15
VSS 7 0 DC -15
R1 2 1 2k

D1 3 2 SIMPLE
D2 2 4 SIMPLE
D3 3 5 SIMPLE
D4 5 4 SIMPLE

R3 3 6 5.1k
R4 4 7 5.1k

X1 0 5 8 OPAMP
R2 5 8 3k

*QUASI-IDEAL OP-AMP SUBCIRCUIT
.SUBCKT OPAMP 1 2 3
EOUT 3 0 1 2 200K
.ENDS OPAMP
.MODEL SIMPLE D(IS=12.61f N=1.8 BV=100V)
.TRAN 0 4m
.PROBE
.END
